Version 4
SHEET 1 2740 680
WIRE -384 -544 -384 -624
WIRE -656 -528 -656 -592
WIRE -656 -416 -656 -448
WIRE -384 -416 -384 -464
WIRE 160 -352 32 -352
WIRE 384 -352 224 -352
WIRE 544 -352 416 -352
WIRE 736 -352 624 -352
WIRE 944 -352 736 -352
WIRE 1136 -352 1024 -352
WIRE 1360 -352 1360 -416
WIRE 1456 -352 1360 -352
WIRE 1680 -352 1536 -352
WIRE 1856 -352 1680 -352
WIRE 2048 -352 1936 -352
WIRE 736 -256 736 -352
WIRE 32 -176 32 -352
WIRE 160 -176 32 -176
WIRE 384 -176 384 -352
WIRE 384 -176 240 -176
WIRE 736 -176 736 -192
WIRE -1216 -144 -1536 -144
WIRE -880 -144 -1152 -144
WIRE -1536 -112 -1536 -144
WIRE 1824 -112 1824 -192
WIRE 1680 -96 1680 -352
WIRE 1792 -96 1680 -96
WIRE 2048 -80 2048 -352
WIRE 2048 -80 1856 -80
WIRE 2400 -80 2048 -80
WIRE 2560 -80 2464 -80
WIRE 2736 -80 2560 -80
WIRE 1792 -64 1456 -64
WIRE -688 0 -688 -48
WIRE -688 0 -736 0
WIRE 1824 0 1824 -48
WIRE -464 32 -592 32
WIRE -352 32 -464 32
WIRE -256 32 -352 32
WIRE -112 32 -256 32
WIRE -1536 64 -1536 -32
WIRE 2560 64 2560 0
WIRE -464 80 -464 32
WIRE -352 80 -352 32
WIRE 176 80 176 32
WIRE 176 80 160 80
WIRE -592 96 -592 32
WIRE -112 96 -112 32
WIRE 32 96 32 -176
WIRE 32 96 -112 96
WIRE 144 96 32 96
WIRE 384 112 384 -176
WIRE 384 112 208 112
WIRE 416 112 416 -352
WIRE 416 112 384 112
WIRE 144 128 -160 128
WIRE -256 144 -256 96
WIRE 176 144 160 144
WIRE 416 160 416 112
WIRE 528 160 416 160
WIRE 704 160 592 160
WIRE 848 160 704 160
WIRE 1136 160 1136 -352
WIRE 1136 160 912 160
WIRE 1456 160 1456 -64
WIRE 1456 160 1136 160
WIRE -160 224 -160 128
WIRE 176 224 176 144
WIRE -592 240 -592 176
WIRE -464 240 -464 144
WIRE -352 240 -352 160
WIRE 704 288 704 160
WIRE 704 496 704 368
FLAG 736 -176 0
FLAG 704 496 0
FLAG 2560 64 0
FLAG 176 224 0
FLAG 1824 0 0
FLAG -656 -416 0
FLAG -384 -416 0
FLAG -656 -592 VCC
FLAG 1824 -192 VCC
FLAG 176 32 VCC
FLAG -384 -624 VREF
FLAG -736 0 VREF
FLAG 1360 -416 VREF
FLAG -1536 64 0
FLAG -592 240 0
FLAG -464 240 0
FLAG -352 240 0
FLAG -160 224 0
FLAG -256 144 0
SYMBOL cap 224 -368 R90
WINDOW 0 0 32 VBottom 2
WINDOW 3 32 32 VTop 2
SYMATTR InstName Cf
SYMATTR Value 68p
SYMBOL cap 592 144 R90
WINDOW 0 0 32 VBottom 2
WINDOW 3 32 32 VTop 2
SYMATTR InstName C2
SYMATTR Value 1n
SYMBOL cap 752 -192 R180
WINDOW 0 24 56 Left 2
WINDOW 3 24 8 Left 2
SYMATTR InstName C1
SYMATTR Value 1n
SYMBOL res -784 -160 R90
WINDOW 0 0 56 VBottom 2
WINDOW 3 32 56 VTop 2
SYMATTR InstName Rin
SYMATTR Value 39.2k
SYMBOL res 256 -192 R90
WINDOW 0 0 56 VBottom 2
WINDOW 3 32 56 VTop 2
SYMATTR InstName Rf
SYMATTR Value 240000000
SYMBOL res 640 -368 R90
WINDOW 0 0 56 VBottom 2
WINDOW 3 32 56 VTop 2
SYMATTR InstName R1
SYMATTR Value 7.5k
SYMBOL res 1040 -368 R90
WINDOW 0 0 56 VBottom 2
WINDOW 3 32 56 VTop 2
SYMATTR InstName R2
SYMATTR Value 7.5k
SYMBOL res 720 384 R180
WINDOW 0 36 76 Left 2
WINDOW 3 36 40 Left 2
SYMATTR InstName R3
SYMATTR Value 1.8k
SYMBOL res 1440 -336 R270
WINDOW 0 32 56 VTop 2
WINDOW 3 0 56 VBottom 2
SYMATTR InstName R4
SYMATTR Value 110
SYMBOL res 1952 -368 R90
WINDOW 0 0 56 VBottom 2
WINDOW 3 32 56 VTop 2
SYMATTR InstName R5
SYMATTR Value 11k
SYMBOL cap 912 144 R90
WINDOW 0 0 32 VBottom 2
WINDOW 3 32 32 VTop 2
SYMATTR InstName C3
SYMATTR Value 1n
SYMBOL cap 2464 -96 R90
WINDOW 0 0 32 VBottom 2
WINDOW 3 32 32 VTop 2
SYMATTR InstName C4
SYMATTR Value 100n
SYMBOL res 2544 -96 R0
SYMATTR InstName R6
SYMATTR Value 158k
SYMBOL voltage -656 -544 R0
WINDOW 123 0 0 Left 0
WINDOW 39 0 0 Left 0
SYMATTR InstName V1
SYMATTR Value 11
SYMBOL voltage -384 -560 R0
WINDOW 123 0 0 Left 0
WINDOW 39 0 0 Left 0
SYMATTR InstName V2
SYMATTR Value 1.65
SYMBOL voltage -1536 -128 R0
WINDOW 123 24 124 Left 2
WINDOW 39 0 0 Left 0
SYMATTR InstName V3
SYMATTR Value PULSE(0 1.7m 10m 1n 1n 10m 20m 10)
SYMBOL cap -1152 -160 R90
WINDOW 0 0 32 VBottom 2
WINDOW 3 32 32 VTop 2
SYMATTR InstName Csensor
SYMATTR Value 390p
SYMBOL OpAmps\\ADA4522-1 1824 -144 R0
SYMATTR InstName U4
SYMBOL current -592 176 R180
WINDOW 0 24 80 Left 2
WINDOW 3 24 0 Left 2
WINDOW 123 0 0 Left 0
WINDOW 39 0 0 Left 0
SYMATTR InstName I1
SYMATTR Value SINE(0 5m 10)
SYMBOL cap -480 80 R0
SYMATTR InstName C5
SYMATTR Value 4220p
SYMBOL res -368 64 R0
SYMATTR InstName R7
SYMATTR Value 39.2k
SYMBOL cap -272 32 R0
SYMATTR InstName C6
SYMATTR Value 390p
SYMBOL OpAmps\\LTC2068 176 112 R0
SYMATTR InstName U1
TEXT -1024 520 Left 2 !.tran 15
